Version 4.1
SHEET 1 968 680
WIRE 176 -192 0 -192
WIRE 416 -192 176 -192
WIRE 464 -144 272 -144
WIRE 624 -144 544 -144
WIRE 176 -96 176 -192
WIRE 272 -96 272 -144
WIRE -544 -32 -640 -32
WIRE -400 -32 -544 -32
WIRE 0 -32 0 -192
WIRE 0 -32 -400 -32
WIRE 80 -32 0 -32
WIRE 416 -32 416 -192
WIRE 416 -32 368 -32
WIRE 0 -16 0 -32
WIRE 416 -16 416 -32
WIRE 0 64 0 48
WIRE 80 64 0 64
WIRE 416 64 416 48
WIRE 416 64 368 64
WIRE -640 80 -640 -32
WIRE -544 80 -544 -32
WIRE -400 80 -400 -32
WIRE 0 80 0 64
WIRE 0 160 0 144
WIRE 80 160 0 160
WIRE 624 160 624 -144
WIRE 624 160 368 160
WIRE -640 208 -640 144
WIRE -544 208 -544 144
WIRE -544 208 -640 208
WIRE -400 208 -400 160
WIRE -400 208 -544 208
WIRE 80 256 0 256
WIRE 416 256 368 256
WIRE 0 272 0 256
WIRE 416 272 416 256
WIRE 416 288 416 272
WIRE 80 352 -144 352
WIRE 416 352 416 336
WIRE 416 352 368 352
WIRE 528 352 416 352
WIRE 528 368 528 352
WIRE 624 368 624 160
WIRE 624 368 608 368
WIRE 704 368 624 368
WIRE 768 368 704 368
WIRE 832 368 768 368
WIRE 912 368 832 368
WIRE 624 384 624 368
WIRE -144 416 -144 352
WIRE 704 416 704 368
WIRE 768 416 768 368
WIRE 832 416 832 368
WIRE 912 416 912 368
WIRE 80 448 0 448
WIRE 416 448 368 448
WIRE 416 480 416 448
WIRE 624 480 624 464
WIRE 624 480 416 480
WIRE 0 496 0 448
WIRE 624 496 624 480
WIRE -400 608 -400 208
WIRE -144 608 -144 496
WIRE -144 608 -400 608
WIRE 0 608 0 560
WIRE 0 608 -144 608
WIRE 272 608 272 512
WIRE 272 608 0 608
WIRE 624 608 624 576
WIRE 624 608 272 608
WIRE 704 608 704 480
WIRE 704 608 624 608
WIRE 768 608 768 480
WIRE 768 608 704 608
WIRE 832 608 832 480
WIRE 832 608 768 608
WIRE 912 608 912 496
WIRE 912 608 832 608
WIRE 272 624 272 608
FLAG 272 624 0
FLAG 0 272 0
SYMBOL PowerProducts\\LT8640S 224 208 R0
SYMATTR InstName U1
SYMBOL voltage -400 64 R0
WINDOW 123 0 0 Left 0
WINDOW 39 0 0 Left 0
SYMATTR InstName V1
SYMATTR Value 8
SYMBOL cap -656 80 R0
SYMATTR InstName C1
SYMATTR Value 22µ
SYMBOL cap -560 80 R0
SYMATTR InstName C2
SYMATTR Value 10µ
SYMBOL cap -16 -16 R0
SYMATTR InstName C3
SYMATTR Value 1µ
SYMBOL cap -16 80 R0
SYMATTR InstName C4
SYMATTR Value 1µ
SYMBOL cap -16 496 R0
SYMATTR InstName C5
SYMATTR Value 0.1µ
SYMBOL cap 400 -16 R0
SYMATTR InstName C6
SYMATTR Value 1µ
SYMBOL cap 400 272 R0
SYMATTR InstName C7
SYMATTR Value 0.1µ
SYMBOL res -160 400 R0
SYMATTR InstName R1
SYMATTR Value 160k
SYMBOL res 560 -160 R90
WINDOW 0 0 56 VBottom 2
WINDOW 3 32 56 VTop 2
SYMATTR InstName R4
SYMATTR Value 100k
SYMBOL ind 624 352 R90
WINDOW 0 5 56 VBottom 2
WINDOW 3 32 56 VTop 2
SYMATTR InstName L1
SYMATTR Value 1.5µ
SYMBOL cap 688 416 R0
SYMATTR InstName C8
SYMBOL cap 752 416 R0
SYMATTR InstName C9
SYMBOL cap 816 416 R0
SYMATTR InstName C10
SYMBOL res 608 368 R0
SYMATTR InstName R2
SYMBOL res 608 480 R0
SYMATTR InstName R3
SYMBOL res 896 400 R0
SYMATTR InstName R5
